 ****** HSPICE  --  A-2007.09  32-BIT    (Aug 28 2007) 15:52:23 12/11/2014 winnt
  Copyright (C) 2007 Synopsys, Inc. All Rights Reserved.                        
  Unpublished-rights reserved under US copyright laws.
  This program is protected by law and is subject to the 
  terms and conditions of the license agreement found in:
    C:\synopsys\Hspice_A-2007.09\license.txt
  Use of this program is your acceptance to be bound by this 
  license agreement. HSPICE is the trademark of Synopsys, Inc.
  Input File: D:\Users\farshid\Documents\MATLAB\D.sp                            
  lic:  
  lic: FLEXlm: v8.5b 
  lic: USER:   Farshid              HOSTNAME: Farshid-PC 
  lic: HOSTID: "a4badbbd94a3 70f1a1ab2e44" PID:      3096 
  lic: Using FLEXlm license file: 
  lic: C:\synopsys\Hspice_A-2007.09\hspice_2007-09.lic 
  lic: Checkout 1 hspice;  Encryption code: AD47C1C891DA5D596A45 
  lic: License/Maintenance for hspice will expire on 31-dec-2020/2007.9 
  lic: NODE LOCKED license on hostid "a4badbbd94a3 70f1a1ab2e44" 
  lic:   
 Init: read install configuration file: C:\synopsys\Hspice_A-2007.09\meta.cfg
 Init: hspice initialization file: C:\synopsys\Hspice_A-2007.09\hspice.ini




 .option post


 vdd 2 0 dc vxx
 .param vxx=1.600000                                                                                                                                                                                                                                                                                                                                                                                                                                                                                                               
 vclock 1 0 pulse (v1 v2 td tr tf pw per)
 vdata 4 0 pwl 0 vxx, 30n vxx, 30.01n 0, 37.5n 0, 37.51n vxx, 45.01n vxx, 45.02n 0, 52.52n 0, 52.53n vxx, 67.53n vxx, 67.54n 0, 82.54n 0, 82.55n vxx, 90.05n vxx, 90.06n 0, 120.06n 0
 .param v1=0 v2=vxx  td=0.01ns   tr=0.01ns  tf=0.01ns  pw=4ns    per=8ns

 *.option scale=1u
 .param w11=1.879500                                                                                                                                                                                                                                                                                                                                                                                                                                                                                                                                                                                                     
 .param w22=0.658494                                                                                                                                                                                                                                                                               
 .param w1='w11*1u'
 .param w2='w22*1u'
 .param len=0.18u                                                                                                                                                                                                                                                                                                              
 mn1 3 1 2 2 pch l=len  w=w1 pd=4u ps=4u
 mn2 3 1 0 0 nch l=len w=w2 pd=4u ps=4u

 mn3 4 1 5 5 pch l=len w=w1 pd=4u ps=4u
 mn4 5 3 4 4 nch l=len w=w2 pd=4u ps=4u

 mn5 4 3 6 6 pch l=len w=w1 pd=4u ps=4u
 mn6 6 1 4 4 nch l=len w=w2 pd=4u ps=4u

 mn7 8 2 5 5 nch l=len w=w2 pd=4u ps=4u
 mn8 7 2 6 6 nch l=len w=w2 pd=4u ps=4u

 mp1 9 5 2 2 pch l=len w=w1 pd=4u ps=4u
 mp2 9 5 0 0 nch l=len w=w2 pd=4u ps=4u

 mp3 8 6 2 2 pch l=len w=w1 pd=4u ps=4u
 mp4 8 6 0 0 nch l=len w=w2 pd=4u ps=4u

 mp5 8 9 2 2 pch l=len w=w1 pd=4u ps=4u
 mp6 8 9 0 0 nch l=len w=w2 pd=4u ps=4u

 mp7 7 8 2 2 pch l=len w=w1 pd=4u ps=4u
 mp8 7 8 0 0 nch l=len w=w2 pd=4u ps=4u

 md1 9 3 10 10 nch l=len w=w2 pd=4u ps=4u
 md2 8 1 10 10 nch l=len w=w2 pd=4u ps=4u

 md3 11 10 2 2 pch l=len w=w1 pd=4u ps=4u
 md4 11 10 0 0 nch l=len w=w2 pd=4u ps=4u

 md5 2 11 12 12 pch l=len w=w1 pd=4u ps=4u
 md6 12 11 0 0 nch l=len w=w2 pd=4u ps=4u

 md7 13 12 2 2 pch l=len w=w1 pd=4u ps=4u
 md8 13 12 0 0 nch l=len w=w2 pd=4u ps=4u

 cl 13 0 21ff


 .model nch nmos level=49
 +version=3.22 tnom=27.0
 + nch=1.024685e+17 tox=1.00000e-8 xj=1.00000e-07
 + lint=3.75860e-08 wint=-2.02101528644562e-07
 + vth0=.6094574 k1=.5341038 k2=1.703463e-03 k3=-17.24589
 + dvt0=.1767506 dvt1=.5109418 dvt2=-0.05
 + nlx=9.979638e-08 w0=1e-6
 + k3b=4.139039
 + vsat=97662.05 ua=-1.748481e-09 ub=3.178541e-18 uc=1.3623e-10
 + rdsw=298.873 u0=307.2991 prwb=-2.24e-4
 + a0=.4976366
 + keta=-2.195445e-02 a1=.0332883 a2=.9
 + voff=-9.623903e-02 nfactor=.8408191 cit=3.994609e-04
 + cdsc=1.130797e-04
 + cdscb=2.4e-5
 + eta0=.0145072 etab=-3.870303e-03
 + dsub=.4116711
 + pclm=1.813153 pdiblc1=2.003703e-02 pdiblc2=.00129051
 + pdiblcb=-1.034e-3
 + drout=.4380235 pscbe1=5.752058e+08 pscbe2=7.510319e-05
 + pvag=.6370527 prt=68.7 ngate=1.e20 alpha0=1.e-7 beta0=28.4
 + prwg=-0.001 ags=1.2
 + dvt0w=0.58 dvt1w=5.3e6 dvt2w=-0.0032
 + kt1=-.3 kt2=-.03
 + at=33000
 + ute=-1.5
 + ua1=4.31e-09 ub1=7.61e-18 uc1=-2.378e-10
 + kt1l=1e-8
 + wr=1 b0=1e-7 b1=1e-7 dwg=5e-8 dwb=2e-8 delta=0.015
 + cgdl=1e-10 cgsl=1e-10 cgbo=1e-10 xpart=0.0
 + cgdo=0.4e-9 cgso=0.4e-9
 + clc=0.1e-6
 + cle=0.6
 + ckappa=0.6


 .model pch pmos level=49
 +version=3.22 tnom=27.0
 + nch=5.73068e+16 tox=1.00000e-8 xj=1.00000e-07
 + lint=8.195860e-08 wint=-1.821562e-07
 + vth0=-.86094574 k1=.341038 k2=2.703463e-02 k3=12.24589
 + dvt0=.767506 dvt1=.65109418 dvt2=-0.145
 + nlx=1.979638e-07 w0=1.1e-6
 + k3b=-2.4139039
 + vsat=60362.05 ua=1.348481e-09 ub=3.178541e-19 uc=1.1623e-10
 + rdsw=498.873 u0=137.2991 prwb=-1.2e-5
 + a0=.3276366
 + keta=-1.8195445e-02 a1=.0232883 a2=.9
 + voff=-6.623903e-02 nfactor=1.0408191 cit=4.994609e-04
 + cdsc=1.030797e-3
 + cdscb=2.84e-4
 + eta0=.0245072 etab=-1.570303e-03
 + dsub=.24116711
 + pclm=2.6813153 pdiblc1=4.003703e-02 pdiblc2=.00329051 
 + pdiblcb=-2.e-4
 + drout=.1380235 pscbe1=0 pscbe2=1.e-28
 + pvag=-.16370527
 + prwg=-0.001 ags=1.2
 + dvt0w=0.58 dvt1w=5.3e6 dvt2w=-0.0032
 + kt1=-.3 kt2=-.03 prt=76.4
 + at=33000
 + ute=-1.5
 + ua1=4.31e-09 ub1=7.61e-18 uc1=-2.378e-10
 + kt1l=0
 + wr=1 b0=1e-7 b1=1e-7 dwg=5e-8 dwb=2e-8 delta=0.015
 + cgdl=1e-10 cgsl=1e-10 cgbo=1e-10 xpart=0.0
 + cgdo=0.4e-9 cgso=0.4e-9
 + clc=0.1e-6
 + cle=0.6
 + ckappa=0.6


 .temp  27
  .tran 0.1ps 120ns

  .meas tran tplh trig v(1) val='vxx/2' rise=6 targ v(13) val='vxx' rise=7
  .meas tran tphl trig v(1) val='vxx/2' fall=11 targ v(13) val='0' fall=12

  .meas tran tpd param='(abs(tphl)+abs(tplh))/2'

  .meas tran avgpower avg power from = 0ps  to = 120ns

 ***********************************************************************
 ** runlvl is invoked, you can disable it by:
      a) Add option runlvl=0 to your current simulation job.
      b) Copy $installdir/hspice.ini to your HOME directory and
         customize it by adding option runlvl=0, which disables
         it for all of your simulation jobs.
      c) Re-invoke $installdir/bin/config program and unselect the
         option runlvl setting in box 'hspice.ini' which disables
         it for whole group simulation jobs.

 ** runlvl is invoked, some options are ignored or automatically set:
      Options below are automatically set(user setting will overwrite them):
      if runlvl=6,            .option bypass=0
      if runlvl=[1|2|3|4|5],  .option bypass=2

      Options below are ignored, they are replaced by automated algorithms:
        lvltim    dvdt      ft    fast   trtol  absvar  relvar
          relq  chgtol    dvtr    imin    itl3    rmax

 ** runlvl is invoked, actual option value used by HSPICE are:
       runlvl= 3       bypass= 2      mbypass=   2.00   bytol= 100.00u
 ***********************************************************************

1****** HSPICE  --  A-2007.09  32-BIT    (Aug 28 2007) 15:52:23 12/11/2014 winnt
 ******  
 * optimization of dual edge triggered d flip-flop : standard and good condition
  ******  mos   model parameters           tnom=  25.000 temp=  25.000          
 ******  
 ***************************************************************************
 ***        model parameters  model name:   0:nch      model type:nmos   ***
 ***************************************************************************

   *** general parameters ***
    deriv=   0.           

   ***  level 49  model parameters  ***

       hspver=    2006.03               level=         49         
      version=       3.22            paramchk=          0         
       apwarn=          1                lite=          0         
       vgslim=          0             binUnit=          1         
       capMod=          3               xpart=          0         
       mobMod=          1              nqsMod=          0         
       stiMod=          0                 elm=          5         
     sfvtflag=          0                 tox=     1e-008 meter   
           xj=     1e-007 meter       binflag=          0         
         lmin=          0 meter          lmax=          0 meter   
         wmin=          0 meter          wmax=          0 meter   
         lref=          0 meter          wref=          0 meter   
         lint=3.7586e-008 meter          wint=-2.02102e-007 meter   
        lmult=          1               wmult=          1         
           ll=          0                 lln=          1         
           lw=          0                 lwn=          1         
          lwl=          0                  wl=          0         
          wln=          1                  ww=          0         
          wwn=          1                 wwl=          0         
          dwg=     5e-008 m/V             dwb=     2e-008 m/V^1/2 
           a0=   0.497637                 ags=        1.2 V^-1    
           b0=     1e-007 meter            b1=     1e-007 meter   
         keta= -0.0219545 V^-1           voff=  -0.096239 V       
        ngate=     1e+020 cm^-3           vbx=          0 V       
          vbm=         -3 V                xt=  1.55e-007 meter   
         vth0=   0.609457 V               nch=1.02469e+017 cm^-3   
         nsub=     6e+016 cm^-3           nlx=9.97964e-008 meter   
       gamma1=          0 V^-1/2       gamma2=          0 V^-1/2  
           k1=   0.534104 V^1/2            k2= 0.00170346         
           k3=   -17.2459                 k3b=    4.13904 V^-1    
           w0=     1e-006 meter          dvt0=   0.176751         
         dvt1=   0.510942                dvt2=      -0.05 V^-1    
        dvt0w=       0.58 meter^-1      dvt1w=   5.3e+006 meter^-1
        dvt2w=    -0.0032 V^-1           dsub=   0.411671         
         eta0=  0.0145072                etab= -0.0038703 V^-1    
           u0=    307.299 cm^2/V/sec         ua=-1.74848e-009 m/V     
           ub=3.17854e-018 (m/V)^2          uc=1.3623e-010 V^-1    
         vsat=    97662.1 m/sec            a1=  0.0332883 v^-1    
           a2=        0.9               delta=      0.015 V       
         rdsw=    298.873 ohm-um         prwg=     -0.001 V^-1    
         prwb=  -0.000224 V^-1/2           wr=          1         
         pclm=    1.81315             pdiblc1=   0.020037         
      pdiblc2= 0.00129051             pdiblcb=  -0.001034 V^-1    
       pscbe1=5.75206e+008 V/m          pscbe2=7.51032e-005 V/m     
        drout=   0.438023                pvag=   0.637053         
      nfactor=   0.840819                cdsc= 0.00011308 f/m^2   
        cdscb=   2.4e-005 f/V/m^2       cdscd=          0 f/V/m^2 
          cit=0.000399461 f/m^2        alpha0=     1e-007 m/V     
        beta0=       28.4 V               dlc=3.7586e-008 meter   
          dwc=-2.02102e-007 meter           clc=     1e-007 meter   
          cle=        0.6                cgso=     4e-010 f/m     
         cgdo=     4e-010 f/m            cgbo=     1e-010 f/m     
         cgsl=     1e-010 f/m            cgdl=     1e-010 f/m     
       ckappa=        0.6                  cf=8.16367e-011 f/m     
         acde=          1 m/V            moin=         15 V^1/2   
         toxm=     1e-008 m            dtoxcv=          0 m       
          vfb (not used)                alpha1=          0 1/V     
         ijth=          0 A              noff=          1         
       voffcv=          0                 tcj=          0 1/K     
        tcjsw=          0 1/K          tcjswg=          0 1/K     
          tpb=          0 V/K           tpbsw=          0 V/K     
       tpbswg=          0 V/K             llc=          0         
          lwc=          0                lwlc=          0         
          wlc=          0                 wwc=          0         
         wwlc=          0                tnom=     300.15 K       
          kt1=       -0.3 V              kt1l=     1e-008         
          kt2=      -0.03                 ute=       -1.5         
          ua1=  4.31e-009 m/V             ub1=  7.61e-018 (m/V)^2 
          uc1=-2.378e-010 m/V^2            at=      33000 m/s     
          prt=       68.7         
          using Berkeley noise model       noiMod=          1         
         noia=     1e+020                noib=      50000         
         noic=  -1.4e-012                  em=   4.1e+007         
           ef=          1                  af=          1         
           kf=          0              gdsnoi=-1.23457e-029         
          using Hspice diodes            using ACM 
          acm=         0                 hdif=         0 meter    
         ldif=         0 meter             js=         0 amp/m^2  
          jsw=         0 amp/m            xti=         0          
            n=         1                   cj=0.000101851 f/m^2    
           mj=       0.5                   pb=       0.8 V        
         cjsw=         0 f/m             mjsw=      0.33          
          php=       0.8 V               pbsw (not used)           
       cjgate=         0 f/m            cjswg (not used)           
        mjswg (not used)                 pbswg (not used)           
 ***************************************************************************
 ***        model parameters  model name:   0:pch      model type:pmos   ***
 ***************************************************************************

   *** general parameters ***
    deriv=   0.           

   ***  level 49  model parameters  ***

       hspver=    2006.03               level=         49         
      version=       3.22            paramchk=          0         
       apwarn=          1                lite=          0         
       vgslim=          0             binUnit=          1         
       capMod=          3               xpart=          0         
       mobMod=          1              nqsMod=          0         
       stiMod=          0                 elm=          5         
     sfvtflag=          0                 tox=     1e-008 meter   
           xj=     1e-007 meter       binflag=          0         
         lmin=          0 meter          lmax=          0 meter   
         wmin=          0 meter          wmax=          0 meter   
         lref=          0 meter          wref=          0 meter   
         lint=8.19586e-008 meter          wint=-1.82156e-007 meter   
        lmult=          1               wmult=          1         
           ll=          0                 lln=          1         
           lw=          0                 lwn=          1         
          lwl=          0                  wl=          0         
          wln=          1                  ww=          0         
          wwn=          1                 wwl=          0         
          dwg=     5e-008 m/V             dwb=     2e-008 m/V^1/2 
           a0=   0.327637                 ags=        1.2 V^-1    
           b0=     1e-007 meter            b1=     1e-007 meter   
         keta= -0.0181954 V^-1           voff=  -0.066239 V       
        ngate=          0 cm^-3           vbx=          0 V       
          vbm=         -3 V                xt=  1.55e-007 meter   
         vth0=  -0.860946 V               nch=5.73068e+016 cm^-3   
         nsub=     6e+016 cm^-3           nlx=1.97964e-007 meter   
       gamma1=          0 V^-1/2       gamma2=          0 V^-1/2  
           k1=   0.341038 V^1/2            k2=  0.0270346         
           k3=    12.2459                 k3b=    -2.4139 V^-1    
           w0=   1.1e-006 meter          dvt0=   0.767506         
         dvt1=   0.651094                dvt2=     -0.145 V^-1    
        dvt0w=       0.58 meter^-1      dvt1w=   5.3e+006 meter^-1
        dvt2w=    -0.0032 V^-1           dsub=   0.241167         
         eta0=  0.0245072                etab= -0.0015703 V^-1    
           u0=    137.299 cm^2/V/sec         ua=1.34848e-009 m/V     
           ub=3.17854e-019 (m/V)^2          uc=1.1623e-010 V^-1    
         vsat=    60362.1 m/sec            a1=  0.0232883 v^-1    
           a2=        0.9               delta=      0.015 V       
         rdsw=    498.873 ohm-um         prwg=     -0.001 V^-1    
         prwb=  -1.2e-005 V^-1/2           wr=          1         
         pclm=    2.68132             pdiblc1=   0.040037         
      pdiblc2= 0.00329051             pdiblcb=    -0.0002 V^-1    
       pscbe1=          0 V/m          pscbe2=     1e-028 V/m     
        drout=   0.138023                pvag=  -0.163705         
      nfactor=    1.04082                cdsc=  0.0010308 f/m^2   
        cdscb=   0.000284 f/V/m^2       cdscd=          0 f/V/m^2 
          cit=0.000499461 f/m^2        alpha0=          0 m/V     
        beta0=         30 V               dlc=8.19586e-008 meter   
          dwc=-1.82156e-007 meter           clc=     1e-007 meter   
          cle=        0.6                cgso=     4e-010 f/m     
         cgdo=     4e-010 f/m            cgbo=     1e-010 f/m     
         cgsl=     1e-010 f/m            cgdl=     1e-010 f/m     
       ckappa=        0.6                  cf=8.16367e-011 f/m     
         acde=          1 m/V            moin=         15 V^1/2   
         toxm=     1e-008 m            dtoxcv=          0 m       
          vfb (not used)                alpha1=          0 1/V     
         ijth=          0 A              noff=          1         
       voffcv=          0                 tcj=          0 1/K     
        tcjsw=          0 1/K          tcjswg=          0 1/K     
          tpb=          0 V/K           tpbsw=          0 V/K     
       tpbswg=          0 V/K             llc=          0         
          lwc=          0                lwlc=          0         
          wlc=          0                 wwc=          0         
         wwlc=          0                tnom=     300.15 K       
          kt1=       -0.3 V              kt1l=          0         
          kt2=      -0.03                 ute=       -1.5         
          ua1=  4.31e-009 m/V             ub1=  7.61e-018 (m/V)^2 
          uc1=-2.378e-010 m/V^2            at=      33000 m/s     
          prt=       76.4         
          using Berkeley noise model       noiMod=          1         
         noia=   9.9e+018                noib=       2400         
         noic=   1.4e-012                  em=   4.1e+007         
           ef=          1                  af=          1         
           kf=          0              gdsnoi=-1.23457e-029         
          using Hspice diodes            using ACM 
          acm=         0                 hdif=         0 meter    
         ldif=         0 meter             js=         0 amp/m^2  
          jsw=         0 amp/m            xti=         0          
            n=         1                   cj=0.000101851 f/m^2    
           mj=       0.5                   pb=       0.8 V        
         cjsw=         0 f/m             mjsw=      0.33          
          php=       0.8 V               pbsw (not used)           
       cjgate=         0 f/m            cjswg (not used)           
        mjswg (not used)                 pbswg (not used)           

 **warning** dc voltage reset to initial transient source value
             in source        0:vclock              new dc=  0.0000D+00


 **warning** dc voltage reset to initial transient source value
             in source        0:vdata               new dc=  0.1600D+01

 

1****** HSPICE  --  A-2007.09  32-BIT    (Aug 28 2007) 15:52:23 12/11/2014 winnt
 ******  
 * optimization of dual edge triggered d flip-flop : standard and good condition
  ******  operating point information      tnom=  25.000 temp=  27.000          
 ******  
 ***** operating point status is voltage   simulation time is     0.     
    node    =voltage      node    =voltage      node    =voltage

 +0:1       =   0.      0:2       =   1.6000  0:3       =   1.6000 
 +0:4       =   1.6000  0:5       =   1.6000  0:6       = 213.4145n
 +0:7       = 108.6218n 0:8       =   1.6000  0:9       =   7.8006n
 +0:10      =  11.7723n 0:11      =   1.6000  0:12      =   7.1363n
 +0:13      =   1.6000 

 ******  
 * optimization of dual edge triggered d flip-flop : standard and good condition
  ******  transient analysis               tnom=  25.000 temp=  27.000          
 ******  
   tplh= -3.2699E-08  targ=  7.3164E-09   trig=  4.0015E-08
   tphl= -7.1865E-08  targ=  1.2160E-08   trig=  8.4025E-08
   tpd=  5.2282E-08
   avgpower=  1.8428E-04  from=  0.0000E+00     to=  1.2000E-07

          ***** job concluded
1****** HSPICE  --  A-2007.09  32-BIT    (Aug 28 2007) 15:52:23 12/11/2014 winnt
 ******  
 * optimization of dual edge triggered d flip-flop : standard and good condition
  ******  job statistics summary           tnom=  25.000 temp=  27.000          
 ******  

           total memory used        314 kbytes

  # nodes =      14 # elements=      28
  # diodes=       0 # bjts    =       0 # jfets   =       0 # mosfets =      24
  # va device =       0

    analysis           time    # points   tot. iter  conv.iter

    op point           0.01           1          16
    transient          0.69     1200001        4735        1735 rev=        64
    readin             0.03
    errchk             0.01
    setup              0.02
    output             0.00
           total cpu time          0.82 seconds
               job started at  15:52:23 12/11/2014
               job ended   at  15:52:24 12/11/2014


 Init: hspice initialization file: C:\synopsys\Hspice_A-2007.09\hspice.ini
  lic: Release hspice token(s) 
